Test_Network/condensed/network_5/Feeder_1/LinesUnq_pruned.txt
New Line.LINE51_1 Bus1=51_1 Bus2=51_2 phases=3 Linecode=5c_.06 Length=0.25109 Units=m
New Line.LINE51_2 Bus1=51_2 Bus2=51_3 phases=3 Linecode=5c_.06 Length=0.048466 Units=m
New Line.LINE51_3 Bus1=51_3 Bus2=51_4 phases=3 Linecode=5c_.06 Length=0.054999 Units=m
New Line.LINE51_4 Bus1=51_4 Bus2=51_5 phases=3 Linecode=5c_.06 Length=0.048167 Units=m
New Line.LINE51_5 Bus1=51_5 Bus2=51_6 phases=3 Linecode=5c_.06 Length=0.046141 Units=m
New Line.LINE51_6 Bus1=51_6 Bus2=51_7 phases=3 Linecode=5c_.06 Length=0.043463 Units=m
New Line.LINE51_7 Bus1=51_7 Bus2=51_8 phases=3 Linecode=5c_.06 Length=0.061659 Units=m
New Line.LINE51_8 Bus1=51_8 Bus2=51_9 phases=3 Linecode=5c_.06 Length=0.030017 Units=m
New Line.LINE51_9 Bus1=51_9 Bus2=51_10 phases=3 Linecode=5c_.06 Length=0.036223 Units=m
New Line.LINE51_10 Bus1=51_10 Bus2=51_11 phases=3 Linecode=5c_.06 Length=3.3729 Units=m
New Line.LINE51_11 Bus1=51_11 Bus2=51_12 phases=3 Linecode=5c_.06 Length=0.090378 Units=m
New Line.LINE51_12 Bus1=51_12 Bus2=51_13 phases=3 Linecode=5c_.06 Length=0.08071 Units=m
New Line.LINE51_13 Bus1=51_13 Bus2=51_14 phases=3 Linecode=5c_.06 Length=0.082806 Units=m
New Line.LINE51_14 Bus1=51_14 Bus2=51_15 phases=3 Linecode=5c_.06 Length=0.49759 Units=m
New Line.LINE51_15 Bus1=51_15 Bus2=51_16 phases=3 Linecode=5c_.06 Length=2.7717 Units=m
New Line.LINE51_16 Bus1=51_16 Bus2=51_17 phases=3 Linecode=5c_.06 Length=2.2246 Units=m
New Line.LINE51_17 Bus1=51_17 Bus2=51_18 phases=3 Linecode=5c_.06 Length=2.5079 Units=m
New Line.LINE51_18 Bus1=51_18 Bus2=51_19 phases=3 Linecode=5c_.06 Length=1.1208 Units=m
New Line.LINE51_19 Bus1=51_19 Bus2=51_20 phases=3 Linecode=5c_.06 Length=9.9483 Units=m
New Line.LINE51_20 Bus1=51_20 Bus2=51_21 phases=3 Linecode=5c_.06 Length=0.60681 Units=m
New Line.LINE51_21 Bus1=51_21 Bus2=51_22 phases=3 Linecode=5c_.06 Length=0.37184 Units=m
New Line.LINE51_22 Bus1=51_22 Bus2=51_23 phases=3 Linecode=5c_.06 Length=0.52667 Units=m
New Line.LINE51_23 Bus1=51_23 Bus2=51_24 phases=3 Linecode=5c_.06 Length=0.077877 Units=m
New Line.LINE51_24 Bus1=51_24 Bus2=51_25 phases=3 Linecode=5c_.06 Length=0.1005 Units=m
New Line.LINE51_25 Bus1=51_25 Bus2=51_26 phases=3 Linecode=5c_.06 Length=0.13665 Units=m
New Line.LINE51_26 Bus1=51_26 Bus2=51_27 phases=3 Linecode=5c_.06 Length=0.17021 Units=m
New Line.LINE51_27 Bus1=51_27 Bus2=51_28 phases=3 Linecode=5c_.06 Length=0.09586 Units=m
New Line.LINE51_28 Bus1=51_28 Bus2=51_29 phases=3 Linecode=5c_.06 Length=0.073825 Units=m
New Line.LINE51_29 Bus1=51_29 Bus2=51_30 phases=3 Linecode=5c_.06 Length=0.11507 Units=m
New Line.LINE51_30 Bus1=51_30 Bus2=51_31 phases=3 Linecode=5c_.06 Length=0.28185 Units=m
New Line.LINE51_31 Bus1=51_31 Bus2=51_32 phases=3 Linecode=5c_.06 Length=0.59096 Units=m
New Line.LINE51_32 Bus1=51_32 Bus2=51_33 phases=3 Linecode=5c_.06 Length=0.40048 Units=m
New Line.LINE51_33 Bus1=51_33 Bus2=51_34 phases=3 Linecode=5c_.1 Length=3.069 Units=m
New Line.LINE51_35 Bus1=51_34 Bus2=51_36 phases=3 Linecode=5c_.1 Length=13.3501 Units=m
New Line.LINE51_37 Bus1=51_36 Bus2=51_38 phases=3 Linecode=5c_.04 Length=0.28954 Units=m
New Line.LINE51_40 Bus1=51_38 Bus2=51_41 phases=3 Linecode=5c_.04 Length=0.23424 Units=m
New Line.LINE51_43 Bus1=51_41 Bus2=51_44 phases=3 Linecode=5c_.04 Length=0.35396 Units=m
New Line.LINE51_46 Bus1=51_44 Bus2=51_47 phases=3 Linecode=5c_.04 Length=0.25602 Units=m
New Line.LINE51_49 Bus1=51_47 Bus2=51_50 phases=3 Linecode=5c_.04 Length=0.55258 Units=m
New Line.LINE51_52 Bus1=51_50 Bus2=51_53 phases=3 Linecode=5c_.04 Length=0.5228 Units=m
New Line.LINE51_54 Bus1=51_52 Bus2=51_55 phases=3 Linecode=2c_.0145 Length=3.8601 Units=m
New Line.LINE51_56 Bus1=51_53 Bus2=51_57 phases=3 Linecode=5c_.04 Length=0.24286 Units=m
New Line.LINE51_59 Bus1=51_57 Bus2=51_60 phases=3 Linecode=5c_.04 Length=0.17204 Units=m
New Line.LINE51_62 Bus1=51_60 Bus2=51_63 phases=3 Linecode=5c_.04 Length=0.38774 Units=m
New Line.LINE51_65 Bus1=51_63 Bus2=51_66 phases=3 Linecode=5c_.04 Length=0.37353 Units=m
New Line.LINE51_68 Bus1=51_66 Bus2=51_69 phases=3 Linecode=5c_.04 Length=0.64039 Units=m
New Line.LINE51_71 Bus1=51_69 Bus2=51_72 phases=3 Linecode=5c_.04 Length=1.6055 Units=m
New Line.LINE51_74 Bus1=51_72 Bus2=51_75 phases=3 Linecode=5c_.04 Length=4.8539 Units=m
New Line.LINE51_76 Bus1=51_75 Bus2=51_77 phases=3 Linecode=5c_.04 Length=2.477 Units=m
New Line.LINE51_79 Bus1=51_77 Bus2=51_80 phases=3 Linecode=5c_.04 Length=0.92265 Units=m
New Line.LINE51_82 Bus1=51_80 Bus2=51_83 phases=3 Linecode=5c_.04 Length=3.0745 Units=m
New Line.LINE51_85 Bus1=51_83 Bus2=51_86 phases=3 Linecode=5c_.04 Length=5.8298 Units=m
New Line.LINE51_88 Bus1=51_86 Bus2=51_89 phases=3 Linecode=5c_.04 Length=3.6272 Units=m
New Line.LINE51_91 Bus1=51_89 Bus2=51_92 phases=3 Linecode=5c_.04 Length=0.44002 Units=m
New Line.LINE51_93 Bus1=51_92 Bus2=51_94 phases=3 Linecode=5c_.04 Length=5.3325 Units=m
New Line.LINE51_95 Bus1=51_94 Bus2=51_96 phases=3 Linecode=2c_.0145 Length=6.8778 Units=m
New Line.LINE51_98 Bus1=51_96 Bus2=51_99 phases=3 Linecode=2c_.0145 Length=5.3558 Units=m
New Line.LINE51_Cmpd_0 Bus1=51_34 Bus2=51_52 phases=3 Linecode=2c_.0145 Length=14.408557 Units=m
New Line.LINE51_Cmpd_1 Bus1=51_52 Bus2=51_87 phases=3 Linecode=2c_.0145 Length=11.438564 Units=m
New Line.LINE51_Cmpd_2 Bus1=51_96 Bus2=51_130 phases=3 Linecode=2c_.0145 Length=11.340087 Units=m
