Test_Network/condensed/network_5/Feeder_3/LinesUnq_pruned.txt
New Line.LINE53_65 Bus1=53_64 Bus2=53_66 phases=3 Linecode=2c_.0145 Length=16.4023 Units=m
New Line.LINE53_66 Bus1=53_64 Bus2=53_67 phases=3 Linecode=5c_.04 Length=9.2431 Units=m
New Line.LINE53_68 Bus1=53_66 Bus2=53_69 phases=3 Linecode=2c_.0145 Length=4.5267 Units=m
New Line.LINE53_70 Bus1=53_67 Bus2=53_71 phases=3 Linecode=2c_.0145 Length=15.7165 Units=m
New Line.LINE53_71 Bus1=53_67 Bus2=53_72 phases=3 Linecode=5c_.04 Length=5.5802 Units=m
New Line.LINE53_74 Bus1=53_71 Bus2=53_75 phases=3 Linecode=2c_.0145 Length=3.8716 Units=m
New Line.LINE53_111 Bus1=53_108 Bus2=53_112 phases=3 Linecode=2c_.0145 Length=6.5048 Units=m
New Line.LINE53_118 Bus1=53_112 Bus2=53_119 phases=3 Linecode=2c_.0145 Length=4.7841 Units=m
New Line.LINE53_195 Bus1=53_190 Bus2=53_196 phases=3 Linecode=4c_.2_SAC Length=10.9381 Units=m
New Line.LINE53_196 Bus1=53_190 Bus2=53_197 phases=3 Linecode=4c_.2_SAC Length=9.3902 Units=m
New Line.LINE53_201 Bus1=53_196 Bus2=53_202 phases=3 Linecode=5c_.1 Length=12.0138 Units=m
New Line.LINE53_203 Bus1=53_197 Bus2=53_204 phases=3 Linecode=2c_.0145 Length=6.6277 Units=m
New Line.LINE53_209 Bus1=53_202 Bus2=53_210 phases=3 Linecode=5c_.1 Length=10.1102 Units=m
New Line.LINE53_210 Bus1=53_204 Bus2=53_211 phases=3 Linecode=2c_.0145 Length=5.294 Units=m
New Line.LINE53_219 Bus1=53_210 Bus2=53_220 phases=3 Linecode=5c_.1 Length=4.205 Units=m
New Line.LINE53_225 Bus1=53_217 Bus2=53_226 phases=3 Linecode=2c_.0225 Length=6.2974 Units=m
New Line.LINE53_230 Bus1=53_220 Bus2=53_231 phases=3 Linecode=5c_.1 Length=6.1189 Units=m
New Line.LINE53_250 Bus1=53_240 Bus2=53_251 phases=3 Linecode=2c_.0225 Length=5.703 Units=m
New Line.LINE53_264 Bus1=53_253 Bus2=53_265 phases=3 Linecode=2c_.02 Length=6.8653 Units=m
New Line.LINE53_272 Bus1=53_261 Bus2=53_273 phases=3 Linecode=2c_.0225 Length=5.9991 Units=m
New Line.LINE53_313 Bus1=53_301 Bus2=53_314 phases=3 Linecode=4c_.3_SAC Length=2.3228 Units=m
New Line.LINE53_318 Bus1=53_304 Bus2=53_319 phases=3 Linecode=2c_.0145 Length=1.7735 Units=m
New Line.LINE53_325 Bus1=53_310 Bus2=53_326 phases=3 Linecode=2c_.0225 Length=5.8102 Units=m
New Line.LINE53_331 Bus1=53_314 Bus2=53_332 phases=3 Linecode=4c_.3_SAC Length=1.0664 Units=m
New Line.LINE53_360 Bus1=53_344 Bus2=53_361 phases=3 Linecode=2c_.0225 Length=5.1196 Units=m
New Line.LINE53_441 Bus1=53_426 Bus2=53_442 phases=3 Linecode=5c_.1 Length=5.8671 Units=m
New Line.LINE53_445 Bus1=53_429 Bus2=53_446 phases=3 Linecode=4c_.3_SAC Length=4.3271 Units=m
New Line.LINE53_497 Bus1=53_479 Bus2=53_498 phases=3 Linecode=4c_.3_SAC Length=8.6209 Units=m
New Line.LINE53_510 Bus1=53_492 Bus2=53_511 phases=3 Linecode=2c_.0225 Length=5.855 Units=m
New Line.LINE53_513 Bus1=53_493 Bus2=53_514 phases=3 Linecode=5c_.1 Length=5.2341 Units=m
New Line.LINE53_523 Bus1=53_503 Bus2=53_524 phases=3 Linecode=4c_185_SAC_XC Length=1.5199 Units=m
New Line.LINE53_535 Bus1=53_514 Bus2=53_536 phases=3 Linecode=5c_.1 Length=4.0669 Units=m
New Line.LINE53_554 Bus1=53_534 Bus2=53_555 phases=3 Linecode=2c_.0225 Length=4.7256 Units=m
New Line.LINE53_558 Bus1=53_536 Bus2=53_559 phases=3 Linecode=5c_.1 Length=4.06 Units=m
New Line.LINE53_578 Bus1=53_557 Bus2=53_579 phases=3 Linecode=2c_.0145 Length=5.7822 Units=m
New Line.LINE53_589 Bus1=53_565 Bus2=53_590 phases=3 Linecode=4c_.3_SAC Length=0.4011 Units=m
New Line.LINE53_708 Bus1=53_684 Bus2=53_709 phases=3 Linecode=4c_.3_SAC Length=4.2341 Units=m
New Line.LINE53_718 Bus1=53_693 Bus2=53_719 phases=3 Linecode=5c_.1 Length=1.3761 Units=m
New Line.LINE53_744 Bus1=53_719 Bus2=53_745 phases=3 Linecode=2c_.0225 Length=15.7755 Units=m
New Line.LINE53_745 Bus1=53_719 Bus2=53_746 phases=3 Linecode=5c_.1 Length=8.6688 Units=m
New Line.LINE53_768 Bus1=53_742 Bus2=53_769 phases=3 Linecode=4c_.2_SAC Length=3.7277 Units=m
New Line.LINE53_772 Bus1=53_745 Bus2=53_773 phases=3 Linecode=2c_.0225 Length=4.1111 Units=m
New Line.LINE53_774 Bus1=53_746 Bus2=53_775 phases=3 Linecode=2c_.0225 Length=7.8064 Units=m
New Line.LINE53_777 Bus1=53_748 Bus2=53_778 phases=3 Linecode=2c_.0145 Length=4.7921 Units=m
New Line.LINE53_804 Bus1=53_775 Bus2=53_805 phases=3 Linecode=2c_.0225 Length=5.3643 Units=m
New Line.LINE53_821 Bus1=53_792 Bus2=53_822 phases=3 Linecode=4c_.3_SAC Length=2.516 Units=m
New Line.LINE53_837 Bus1=53_808 Bus2=53_838 phases=3 Linecode=2c_.0225 Length=14.7892 Units=m
New Line.LINE53_841 Bus1=53_812 Bus2=53_842 phases=3 Linecode=25_SAC_PC Length=4.7999 Units=m
New Line.LINE53_870 Bus1=53_838 Bus2=53_871 phases=3 Linecode=2c_.0225 Length=5.173 Units=m
New Line.LINE53_921 Bus1=53_890 Bus2=53_922 phases=3 Linecode=.0225 Length=2.2415 Units=m
New Line.LINE53_942 Bus1=53_910 Bus2=53_943 phases=3 Linecode=.0225 Length=3.0653 Units=m
New Line.LINE53_979 Bus1=53_947 Bus2=53_980 phases=3 Linecode=.0225 Length=3.6077 Units=m
New Line.LINE53_1046 Bus1=53_1019 Bus2=53_1047 phases=3 Linecode=2c_.0225 Length=2.423 Units=m
New Line.LINE53_1060 Bus1=53_1033 Bus2=53_1061 phases=3 Linecode=2c_.0225 Length=7.3214 Units=m
New Line.LINE53_1088 Bus1=53_1061 Bus2=53_1089 phases=3 Linecode=2c_.0225 Length=4.9293 Units=m
New Line.LINE53_1114 Bus1=53_1085 Bus2=53_1115 phases=3 Linecode=.0225 Length=1.5228 Units=m
New Line.LINE53_1137 Bus1=53_1112 Bus2=53_1138 phases=3 Linecode=4c_.2_SAC Length=1.291 Units=m
New Line.LINE53_1157 Bus1=53_1133 Bus2=53_1158 phases=3 Linecode=.0225 Length=3.0904 Units=m
New Line.LINE53_1171 Bus1=53_1147 Bus2=53_1172 phases=3 Linecode=2c_.04 Length=6.9051 Units=m
New Line.LINE53_1192 Bus1=53_1171 Bus2=53_1193 phases=3 Linecode=2c_.0225 Length=16.3414 Units=m
New Line.LINE53_1205 Bus1=53_1185 Bus2=53_1206 phases=3 Linecode=.0225 Length=2.2753 Units=m
New Line.LINE53_1215 Bus1=53_1193 Bus2=53_1216 phases=3 Linecode=2c_.0225 Length=5.5344 Units=m
New Line.LINE53_1233 Bus1=53_1213 Bus2=53_1234 phases=3 Linecode=2c_.04 Length=7.3193 Units=m
New Line.LINE53_1247 Bus1=53_1227 Bus2=53_1248 phases=3 Linecode=2c_.04 Length=8.1082 Units=m
New Line.LINE53_1281 Bus1=53_1262 Bus2=53_1282 phases=3 Linecode=2c_.04 Length=8.0631 Units=m
New Line.LINE53_1301 Bus1=53_1281 Bus2=53_1302 phases=3 Linecode=.0225 Length=2.7558 Units=m
New Line.LINE53_1309 Bus1=53_1288 Bus2=53_1310 phases=3 Linecode=.04 Length=3.1201 Units=m
New Line.LINE53_1322 Bus1=53_1300 Bus2=53_1323 phases=3 Linecode=2c_.0225 Length=7.0982 Units=m
New Line.LINE53_1345 Bus1=53_1323 Bus2=53_1346 phases=3 Linecode=2c_.0225 Length=5.0821 Units=m
New Line.LINE53_1370 Bus1=53_1348 Bus2=53_1371 phases=3 Linecode=2c_.0225 Length=13.9667 Units=m
New Line.LINE53_1391 Bus1=53_1371 Bus2=53_1392 phases=3 Linecode=2c_.0225 Length=5.9858 Units=m
New Line.LINE53_1408 Bus1=53_1386 Bus2=53_1409 phases=3 Linecode=.0225 Length=3.0362 Units=m
New Line.LINE53_1416 Bus1=53_1395 Bus2=53_1417 phases=3 Linecode=5c_.1 Length=3.2413 Units=m
New Line.LINE53_1417 Bus1=53_1395 Bus2=53_1418 phases=3 Linecode=2c_.0225 Length=8.34 Units=m
New Line.LINE53_1438 Bus1=53_1417 Bus2=53_1439 phases=3 Linecode=5c_.1 Length=11.0401 Units=m
New Line.LINE53_1439 Bus1=53_1417 Bus2=53_1440 phases=3 Linecode=2c_.0225 Length=15.5425 Units=m
New Line.LINE53_1440 Bus1=53_1418 Bus2=53_1441 phases=3 Linecode=2c_.0225 Length=4.104 Units=m
New Line.LINE53_1461 Bus1=53_1439 Bus2=53_1462 phases=3 Linecode=5c_.1 Length=3.6452 Units=m
New Line.LINE53_1462 Bus1=53_1439 Bus2=53_1463 phases=3 Linecode=2c_.0225 Length=8.4494 Units=m
New Line.LINE53_1463 Bus1=53_1440 Bus2=53_1464 phases=3 Linecode=2c_.0225 Length=5.7691 Units=m
New Line.LINE53_1486 Bus1=53_1462 Bus2=53_1487 phases=3 Linecode=2c_.0225 Length=14.6538 Units=m
New Line.LINE53_1487 Bus1=53_1463 Bus2=53_1488 phases=3 Linecode=2c_.0225 Length=3.5639 Units=m
New Line.LINE53_1512 Bus1=53_1487 Bus2=53_1513 phases=3 Linecode=2c_.0225 Length=5.2235 Units=m
New Line.LINE53_1517 Bus1=53_1492 Bus2=53_1518 phases=3 Linecode=2c_.04 Length=7.0362 Units=m
New Line.LINE53_1562 Bus1=53_1534 Bus2=53_1563 phases=3 Linecode=.0225 Length=3.4583 Units=m
New Line.LINE53_1587 Bus1=53_1559 Bus2=53_1588 phases=3 Linecode=.0225 Length=6.2157 Units=m
New Line.LINE53_1592 Bus1=53_1562 Bus2=53_1593 phases=3 Linecode=4c_.2_SAC Length=8.7328 Units=m
New Line.LINE53_1601 Bus1=53_1573 Bus2=53_1602 phases=3 Linecode=2c_.0225 Length=9.959 Units=m
New Line.LINE53_1623 Bus1=53_1593 Bus2=53_1624 phases=3 Linecode=4c_.2_SAC Length=1.8971 Units=m
New Line.LINE53_1630 Bus1=53_1602 Bus2=53_1631 phases=3 Linecode=2c_.0225 Length=4.7055 Units=m
New Line.LINE53_1710 Bus1=53_1686 Bus2=53_1711 phases=3 Linecode=2c_.0145 Length=3.2796 Units=m
New Line.LINE53_1732 Bus1=53_1709 Bus2=53_1733 phases=3 Linecode=.0225 Length=3.619 Units=m
New Line.LINE53_1753 Bus1=53_1731 Bus2=53_1754 phases=3 Linecode=3c_185_SAC_XC Length=1.733 Units=m
New Line.LINE53_1799 Bus1=53_1782 Bus2=53_1800 phases=3 Linecode=2c_.04 Length=7.0412 Units=m
New Line.LINE53_1828 Bus1=53_1808 Bus2=53_1829 phases=3 Linecode=3c_185_SAC_XC Length=11.0152 Units=m
New Line.LINE53_1852 Bus1=53_1832 Bus2=53_1853 phases=3 Linecode=3c_185_SAC_XC Length=1.4471 Units=m
New Line.LINE53_1968 Bus1=53_1945 Bus2=53_1969 phases=3 Linecode=3c_185_SAC_XC Length=0.66598 Units=m
New Line.LINE53_1981 Bus1=53_1957 Bus2=53_1982 phases=3 Linecode=2c_.0225 Length=11.645 Units=m
New Line.LINE53_1992 Bus1=53_1967 Bus2=53_1993 phases=3 Linecode=.04 Length=2.1571 Units=m
New Line.LINE53_2009 Bus1=53_1982 Bus2=53_2010 phases=3 Linecode=2c_.0225 Length=2.4632 Units=m
New Line.LINE53_2204 Bus1=53_2181 Bus2=53_2205 phases=3 Linecode=2c_.0225 Length=10.49 Units=m
New Line.LINE53_2226 Bus1=53_2205 Bus2=53_2227 phases=3 Linecode=2c_.0225 Length=3.2598 Units=m
New Line.LINE53_2248 Bus1=53_2226 Bus2=53_2249 phases=3 Linecode=25_SAC_XC Length=0.41289 Units=m
New Line.LINE53_2702 Bus1=53_2696 Bus2=53_2703 phases=3 Linecode=3c_185_SAC_XC Length=2.0026 Units=m
New Line.LINE53_2711 Bus1=53_2703 Bus2=53_2712 phases=3 Linecode=35_SAC_PC Length=0.255 Units=m
New Line.LINE53_2720 Bus1=53_2712 Bus2=53_2721 phases=3 Linecode=35_SAC_PC Length=0.23847 Units=m
New Line.LINE53_Cmpd_0 Bus1=53_446 Bus2=53_910 phases=3 Linecode=.0225 Length=13.690472 Units=m
New Line.LINE53_Cmpd_1 Bus1=53_1969 Bus2=53_2521 phases=3 Linecode=35_SAC_PC Length=30.983013 Units=m
New Line.LINE53_Cmpd_2 Bus1=53_590 Bus2=53_1281 phases=3 Linecode=.0225 Length=13.707108 Units=m
New Line.LINE53_Cmpd_3 Bus1=53_22 Bus2=53_64 phases=3 Linecode=5c_.04 Length=59.882128 Units=m
New Line.LINE53_Cmpd_4 Bus1=53_479 Bus2=53_1147 phases=3 Linecode=2c_.04 Length=18.3049 Units=m
New Line.LINE53_Cmpd_5 Bus1=53_2696 Bus2=53_2816 phases=3 Linecode=35_SAC_PC Length=11.422715 Units=m
New Line.LINE53_Cmpd_6 Bus1=53_565 Bus2=53_1492 phases=3 Linecode=2c_.04 Length=18.215196 Units=m
New Line.LINE53_Cmpd_7 Bus1=53_1967 Bus2=53_2237 phases=3 Linecode=.04 Length=12.306912 Units=m
New Line.LINE53_Cmpd_8 Bus1=53_709 Bus2=53_1262 phases=3 Linecode=2c_.04 Length=18.21355 Units=m
New Line.LINE53_Cmpd_9 Bus1=53_2353 Bus2=53_2548 phases=3 Linecode=35_SAC_PC Length=9.46572 Units=m
New Line.LINE53_Cmpd_10 Bus1=53_2566 Bus2=53_2666 phases=3 Linecode=3c_185_SAC_XC Length=15.64825 Units=m
New Line.LINE53_Cmpd_11 Bus1=53_261 Bus2=53_531 phases=3 Linecode=2c_.0225 Length=10.806657 Units=m
New Line.LINE53_Cmpd_12 Bus1=53_1928 Bus2=53_2587 phases=3 Linecode=35_SAC_PC Length=25.459393 Units=m
New Line.LINE53_Cmpd_13 Bus1=53_808 Bus2=53_1033 phases=3 Linecode=5c_.1 Length=9.85138 Units=m
New Line.LINE53_Cmpd_14 Bus1=53_769 Bus2=53_1213 phases=3 Linecode=2c_.04 Length=21.01598 Units=m
New Line.LINE53_Cmpd_15 Bus1=53_2110 Bus2=53_2181 phases=3 Linecode=5c_.1 Length=9.3952 Units=m
New Line.LINE53_Cmpd_16 Bus1=53_1945 Bus2=53_2647 phases=3 Linecode=35_SAC_PC Length=18.271135 Units=m
New Line.LINE53_Cmpd_17 Bus1=53_1112 Bus2=53_1684 phases=3 Linecode=2c_.04 Length=25.81117 Units=m
New Line.LINE53_Cmpd_18 Bus1=53_1853 Bus2=53_2621 phases=3 Linecode=35_SAC_PC Length=16.833694 Units=m
New Line.LINE53_Cmpd_19 Bus1=53_616 Bus2=53_1133 phases=3 Linecode=.0225 Length=12.809783 Units=m
New Line.LINE53_Cmpd_20 Bus1=53_332 Bus2=53_1146 phases=3 Linecode=2c_.04 Length=26.321344 Units=m
New Line.LINE53_Cmpd_21 Bus1=53_1316 Bus2=53_1967 phases=3 Linecode=.04 Length=19.054067 Units=m
New Line.LINE53_Cmpd_22 Bus1=53_2353 Bus2=53_2566 phases=3 Linecode=3c_185_SAC_XC Length=14.73033 Units=m
New Line.LINE53_Cmpd_23 Bus1=53_1487 Bus2=53_1762 phases=3 Linecode=2c_.0225 Length=10.08885 Units=m
New Line.LINE53_Cmpd_24 Bus1=53_812 Bus2=53_1093 phases=3 Linecode=25_SAC_PC Length=8.236825 Units=m
New Line.LINE53_Cmpd_25 Bus1=53_1832 Bus2=53_2555 phases=3 Linecode=35_SAC_PC Length=12.481621 Units=m
New Line.LINE53_Cmpd_26 Bus1=53_1791 Bus2=53_2501 phases=3 Linecode=35_SAC_PC Length=25.302843 Units=m
New Line.LINE53_Cmpd_27 Bus1=53_2110 Bus2=53_2349 phases=3 Linecode=35_PC Length=23.97515 Units=m
New Line.LINE53_Cmpd_28 Bus1=53_559 Bus2=53_1064 phases=3 Linecode=.0225 Length=15.573482 Units=m
New Line.LINE53_Cmpd_29 Bus1=53_1808 Bus2=53_2092 phases=3 Linecode=35_SAC_PC Length=9.210239 Units=m
New Line.LINE53_Cmpd_30 Bus1=53_418 Bus2=53_748 phases=3 Linecode=2c_.0145 Length=11.500669 Units=m
New Line.LINE53_Cmpd_31 Bus1=53_399 Bus2=53_890 phases=3 Linecode=.0225 Length=13.438348 Units=m
New Line.LINE53_Cmpd_32 Bus1=53_1853 Bus2=53_1945 phases=3 Linecode=3c_185_SAC_XC Length=4.90628 Units=m
New Line.LINE53_Cmpd_33 Bus1=53_1178 Bus2=53_1222 phases=3 Linecode=4c_.3_SAC Length=3.1342 Units=m
New Line.LINE53_Cmpd_34 Bus1=53_684 Bus2=53_1019 phases=3 Linecode=2c_.0225 Length=12.76873 Units=m
New Line.LINE53_Cmpd_35 Bus1=53_451 Bus2=53_809 phases=3 Linecode=2c_.0225 Length=13.810235 Units=m
New Line.LINE53_Cmpd_36 Bus1=53_1222 Bus2=53_1446 phases=3 Linecode=.04 Length=12.75775 Units=m
New Line.LINE53_Cmpd_37 Bus1=53_1453 Bus2=53_1562 phases=3 Linecode=4c_.2_SAC Length=13.0604 Units=m
New Line.LINE53_Cmpd_38 Bus1=53_2687 Bus2=53_2902 phases=3 Linecode=35_SAC_PC Length=17.704243 Units=m
New Line.LINE53_Cmpd_39 Bus1=53_2631 Bus2=53_2752 phases=3 Linecode=35_SAC_PC Length=8.463458 Units=m
New Line.LINE53_Cmpd_40 Bus1=53_429 Bus2=53_1381 phases=3 Linecode=3c_185_SAC_XC Length=56.50714 Units=m
New Line.LINE53_Cmpd_41 Bus1=53_792 Bus2=53_1155 phases=3 Linecode=.0225 Length=15.49491 Units=m
New Line.LINE53_Cmpd_42 Bus1=53_2189 Bus2=53_2466 phases=3 Linecode=35_SAC_PC Length=10.091518 Units=m
New Line.LINE53_Cmpd_43 Bus1=53_310 Bus2=53_455 phases=3 Linecode=2c_.0225 Length=15.18652 Units=m
New Line.LINE53_Cmpd_44 Bus1=53_917 Bus2=53_1782 phases=3 Linecode=2c_.04 Length=21.760946 Units=m
New Line.LINE53_Cmpd_45 Bus1=53_2721 Bus2=53_2876 phases=3 Linecode=35_SAC_PC Length=30.548584 Units=m
New Line.LINE53_Cmpd_46 Bus1=53_1463 Bus2=53_1763 phases=3 Linecode=2c_.0225 Length=11.92208 Units=m
New Line.LINE53_Cmpd_47 Bus1=53_2666 Bus2=53_2826 phases=3 Linecode=35_SAC_PC Length=15.66475 Units=m
New Line.LINE53_Cmpd_48 Bus1=53_1381 Bus2=53_2064 phases=3 Linecode=35_SAC_PC Length=14.289175 Units=m
New Line.LINE53_Cmpd_49 Bus1=53_1440 Bus2=53_1764 phases=3 Linecode=2c_.0225 Length=10.32532 Units=m
New Line.LINE53_Cmpd_50 Bus1=53_1138 Bus2=53_1386 phases=3 Linecode=.0225 Length=12.36851 Units=m
New Line.LINE53_Cmpd_51 Bus1=53_2717 Bus2=53_2900 phases=3 Linecode=35_SAC_PC Length=20.379342 Units=m
New Line.LINE53_Cmpd_52 Bus1=53_1829 Bus2=53_2189 phases=3 Linecode=3c_185_SAC_XC Length=20.13974 Units=m
New Line.LINE53_Cmpd_53 Bus1=53_1427 Bus2=53_2230 phases=3 Linecode=35_SAC_PC Length=24.808473 Units=m
New Line.LINE53_Cmpd_54 Bus1=53_775 Bus2=53_1001 phases=3 Linecode=2c_.0225 Length=8.5602 Units=m
New Line.LINE53_Cmpd_55 Bus1=53_693 Bus2=53_967 phases=3 Linecode=16_PSC Length=14.32208 Units=m
New Line.LINE53_Cmpd_56 Bus1=53_1316 Bus2=53_1453 phases=3 Linecode=4c_.2_SAC Length=4.532525 Units=m
New Line.LINE53_Cmpd_57 Bus1=53_1307 Bus2=53_1744 phases=3 Linecode=2c_.0225 Length=26.69981 Units=m
New Line.LINE53_Cmpd_58 Bus1=53_1731 Bus2=53_2199 phases=3 Linecode=35_SAC_PC Length=13.005602 Units=m
New Line.LINE53_Cmpd_59 Bus1=53_742 Bus2=53_1085 phases=3 Linecode=.0225 Length=13.33497 Units=m
New Line.LINE53_Cmpd_60 Bus1=53_1928 Bus2=53_2489 phases=3 Linecode=35_SAC_PC Length=23.480199 Units=m
New Line.LINE53_Cmpd_61 Bus1=53_231 Bus2=53_287 phases=3 Linecode=5c_.1 Length=11.7381 Units=m
New Line.LINE53_Cmpd_62 Bus1=53_1386 Bus2=53_1709 phases=3 Linecode=.0225 Length=21.085311 Units=m
New Line.LINE53_Cmpd_63 Bus1=53_451 Bus2=53_694 phases=3 Linecode=2c_.0145 Length=18.83122 Units=m
New Line.LINE53_Cmpd_64 Bus1=53_1185 Bus2=53_1250 phases=3 Linecode=.0225 Length=8.52435 Units=m
New Line.LINE53_Cmpd_65 Bus1=53_2712 Bus2=53_2888 phases=3 Linecode=35_SAC_PC Length=16.738937 Units=m
New Line.LINE53_Cmpd_66 Bus1=53_1982 Bus2=53_2203 phases=3 Linecode=2c_.0225 Length=9.42234 Units=m
New Line.LINE53_Cmpd_67 Bus1=53_204 Bus2=53_395 phases=3 Linecode=2c_.0145 Length=14.52702 Units=m
New Line.LINE53_Cmpd_68 Bus1=53_595 Bus2=53_1389 phases=3 Linecode=25_SAC_XC Length=23.324236 Units=m
New Line.LINE53_Cmpd_69 Bus1=53_2189 Bus2=53_2353 phases=3 Linecode=3c_185_SAC_XC Length=10.82085 Units=m
New Line.LINE53_Cmpd_70 Bus1=53_1647 Bus2=53_2043 phases=3 Linecode=35_SAC_PC Length=12.176797 Units=m
New Line.LINE53_Cmpd_71 Bus1=53_1061 Bus2=53_1215 phases=3 Linecode=2c_.0225 Length=10.20332 Units=m
New Line.LINE53_Cmpd_72 Bus1=53_314 Bus2=53_545 phases=3 Linecode=4c_.2_SAC Length=5.77909 Units=m
New Line.LINE53_Cmpd_73 Bus1=53_1647 Bus2=53_1808 phases=3 Linecode=3c_185_SAC_XC Length=10.7826 Units=m
New Line.LINE53_Cmpd_74 Bus1=53_1427 Bus2=53_2313 phases=3 Linecode=35_SAC_PC Length=23.17999 Units=m
New Line.LINE53_Cmpd_75 Bus1=53_121 Bus2=53_151 phases=3 Linecode=25_SAC_XC Length=28.727 Units=m
New Line.LINE53_Cmpd_76 Bus1=53_1072 Bus2=53_1288 phases=3 Linecode=.04 Length=12.7354 Units=m
New Line.LINE53_Cmpd_77 Bus1=53_94 Bus2=53_301 phases=3 Linecode=4c_.3_SAC Length=82.267233 Units=m
New Line.LINE53_Cmpd_78 Bus1=53_1586 Bus2=53_2232 phases=3 Linecode=35_SAC_PC Length=21.381329 Units=m
New Line.LINE53_Cmpd_79 Bus1=53_838 Bus2=53_1118 phases=3 Linecode=2c_.0225 Length=9.19919 Units=m
New Line.LINE53_Cmpd_80 Bus1=53_190 Bus2=53_418 phases=3 Linecode=4c_.0145 Length=13.486195 Units=m
New Line.LINE53_Cmpd_81 Bus1=53_1512 Bus2=53_1686 phases=3 Linecode=2c_.0145 Length=19.52983 Units=m
New Line.LINE53_Cmpd_82 Bus1=53_748 Bus2=53_1092 phases=3 Linecode=2c_.0145 Length=13.765134 Units=m
New Line.LINE53_Cmpd_83 Bus1=53_304 Bus2=53_434 phases=3 Linecode=2c_.0145 Length=8.32381 Units=m
New Line.LINE53_Cmpd_84 Bus1=53_1602 Bus2=53_1819 phases=3 Linecode=2c_.0225 Length=11.68588 Units=m
New Line.LINE53_Cmpd_85 Bus1=53_1969 Bus2=53_2631 phases=3 Linecode=3c_185_SAC_XC Length=18.632655 Units=m
New Line.LINE53_Cmpd_86 Bus1=53_557 Bus2=53_780 phases=3 Linecode=2c_.0145 Length=13.77343 Units=m
New Line.LINE53_Cmpd_87 Bus1=53_830 Bus2=53_1185 phases=3 Linecode=.0225 Length=14.21659 Units=m
New Line.LINE53_Cmpd_88 Bus1=53_822 Bus2=53_1181 phases=3 Linecode=.04 Length=16.60873 Units=m
New Line.LINE53_Cmpd_89 Bus1=53_536 Bus2=53_581 phases=3 Linecode=25_SAC_XC Length=12.8692 Units=m
New Line.LINE53_Cmpd_90 Bus1=53_890 Bus2=53_957 phases=3 Linecode=.0225 Length=6.9714 Units=m
New Line.LINE53_Cmpd_91 Bus1=53_311 Bus2=53_426 phases=3 Linecode=5c_.1 Length=14.23359 Units=m
New Line.LINE53_Cmpd_92 Bus1=53_344 Bus2=53_553 phases=3 Linecode=2c_.0225 Length=11.63381 Units=m
New Line.LINE53_Cmpd_93 Bus1=53_217 Bus2=53_356 phases=3 Linecode=2c_.0225 Length=14.477244 Units=m
New Line.LINE53_Cmpd_94 Bus1=53_121 Bus2=53_190 phases=3 Linecode=4c_.2_SAC Length=9.2805 Units=m
New Line.LINE53_Cmpd_95 Bus1=53_1829 Bus2=53_2435 phases=3 Linecode=35_SAC_PC Length=16.874523 Units=m
New Line.LINE53_Cmpd_96 Bus1=53_112 Bus2=53_194 phases=3 Linecode=2c_.0145 Length=7.445254 Units=m
New Line.LINE53_Cmpd_97 Bus1=53_498 Bus2=53_947 phases=3 Linecode=.0225 Length=12.9752 Units=m
New Line.LINE53_Cmpd_98 Bus1=53_446 Bus2=53_479 phases=3 Linecode=4c_.3_SAC Length=6.2796 Units=m
New Line.LINE53_Cmpd_99 Bus1=53_1323 Bus2=53_1627 phases=3 Linecode=2c_.0225 Length=10.00273 Units=m
New Line.LINE53_Cmpd_100 Bus1=53_1072 Bus2=53_1178 phases=3 Linecode=4c_.3_SAC Length=12.3453 Units=m
New Line.LINE53_Cmpd_101 Bus1=53_1178 Bus2=53_1424 phases=3 Linecode=.0225 Length=16.64178 Units=m
New Line.LINE53_Cmpd_102 Bus1=53_100 Bus2=53_281 phases=3 Linecode=4c_185_SAC_XC Length=23.80326 Units=m
New Line.LINE53_Cmpd_103 Bus1=53_498 Bus2=53_565 phases=3 Linecode=4c_.3_SAC Length=15.6342 Units=m
New Line.LINE53_Cmpd_104 Bus1=53_1213 Bus2=53_1567 phases=3 Linecode=2c_.04 Length=16.197961 Units=m
New Line.LINE53_Cmpd_105 Bus1=53_1573 Bus2=53_1957 phases=3 Linecode=5c_.1 Length=33.0905 Units=m
New Line.LINE53_Cmpd_106 Bus1=53_1427 Bus2=53_1586 phases=3 Linecode=3c_185_SAC_XC Length=13.71193 Units=m
New Line.LINE53_Cmpd_107 Bus1=53_1171 Bus2=53_1300 phases=3 Linecode=5c_.1 Length=9.234 Units=m
New Line.LINE53_Cmpd_108 Bus1=53_709 Bus2=53_792 phases=3 Linecode=4c_.3_SAC Length=9.0284 Units=m
New Line.LINE53_Cmpd_109 Bus1=53_2631 Bus2=53_2687 phases=3 Linecode=3c_185_SAC_XC Length=22.3901 Units=m
New Line.LINE53_Cmpd_110 Bus1=53_1 Bus2=53_22 phases=3 Linecode=4c_.2_SAC Length=9.58689 Units=m
New Line.LINE53_Cmpd_111 Bus1=53_2205 Bus2=53_2402 phases=3 Linecode=2c_.0225 Length=10.63366 Units=m
New Line.LINE53_Cmpd_112 Bus1=53_1263 Bus2=53_1743 phases=3 Linecode=2c_.04 Length=27.57181 Units=m
New Line.LINE53_Cmpd_113 Bus1=53_545 Bus2=53_1157 phases=3 Linecode=.0225 Length=13.733331 Units=m
New Line.LINE53_Cmpd_114 Bus1=53_1782 Bus2=53_1911 phases=3 Linecode=2c_.04 Length=13.50364 Units=m
New Line.LINE53_Cmpd_115 Bus1=53_426 Bus2=53_812 phases=3 Linecode=25_SAC_PC Length=8.197195 Units=m
New Line.LINE53_Cmpd_116 Bus1=53_442 Bus2=53_492 phases=3 Linecode=2c_.0225 Length=16.368865 Units=m
New Line.LINE53_Cmpd_117 Bus1=53_71 Bus2=53_91 phases=3 Linecode=2c_.0145 Length=8.08519 Units=m
New Line.LINE53_Cmpd_118 Bus1=53_1709 Bus2=53_2059 phases=3 Linecode=.0225 Length=12.79951 Units=m
New Line.LINE53_Cmpd_119 Bus1=53_2181 Bus2=53_2226 phases=3 Linecode=5c_.1 Length=6.6186 Units=m
New Line.LINE53_Cmpd_120 Bus1=53_1253 Bus2=53_1534 phases=3 Linecode=.0225 Length=14.08104 Units=m
New Line.LINE53_Cmpd_121 Bus1=53_746 Bus2=53_808 phases=3 Linecode=5c_.1 Length=5.00795 Units=m
New Line.LINE53_Cmpd_122 Bus1=53_2717 Bus2=53_2884 phases=3 Linecode=35_SAC_PC Length=18.4975 Units=m
New Line.LINE53_Cmpd_123 Bus1=53_642 Bus2=53_692 phases=3 Linecode=2c_.0225 Length=12.9534 Units=m
New Line.LINE53_Cmpd_124 Bus1=53_1262 Bus2=53_1420 phases=3 Linecode=2c_.04 Length=13.36221 Units=m
New Line.LINE53_Cmpd_125 Bus1=53_210 Bus2=53_261 phases=3 Linecode=2c_.0225 Length=8.32628 Units=m
New Line.LINE53_Cmpd_126 Bus1=53_745 Bus2=53_1030 phases=3 Linecode=2c_.0225 Length=8.66724 Units=m
New Line.LINE53_Cmpd_127 Bus1=53_830 Bus2=53_1112 phases=3 Linecode=4c_.2_SAC Length=23.56193 Units=m
New Line.LINE53_Cmpd_128 Bus1=53_72 Bus2=53_94 phases=3 Linecode=4c_.3_SAC Length=16.76471 Units=m
New Line.LINE53_Cmpd_129 Bus1=53_202 Bus2=53_217 phases=3 Linecode=2c_.0225 Length=14.32906 Units=m
New Line.LINE53_Cmpd_130 Bus1=53_664 Bus2=53_1227 phases=3 Linecode=2c_.04 Length=16.89586 Units=m
New Line.LINE53_Cmpd_131 Bus1=53_1957 Bus2=53_2110 phases=3 Linecode=5c_.1 Length=10.24087 Units=m
New Line.LINE53_Cmpd_132 Bus1=53_1754 Bus2=53_1928 phases=3 Linecode=35_SAC_PC Length=1.129622 Units=m
New Line.LINE53_Cmpd_133 Bus1=53_418 Bus2=53_622 phases=3 Linecode=2c_.0225 Length=16.04894 Units=m
New Line.LINE53_Cmpd_134 Bus1=53_1288 Bus2=53_1357 phases=3 Linecode=.04 Length=8.2043 Units=m
New Line.LINE53_Cmpd_135 Bus1=53_822 Bus2=53_917 phases=3 Linecode=4c_.3_SAC Length=9.8333 Units=m
New Line.LINE53_Cmpd_136 Bus1=53_595 Bus2=53_642 phases=3 Linecode=5c_.1 Length=6.41847 Units=m
New Line.LINE53_Cmpd_137 Bus1=53_917 Bus2=53_1072 phases=3 Linecode=4c_.3_SAC Length=7.28442 Units=m
New Line.LINE53_Cmpd_138 Bus1=53_1624 Bus2=53_2176 phases=3 Linecode=.0225 Length=16.369176 Units=m
New Line.LINE53_Cmpd_139 Bus1=53_1512 Bus2=53_1573 phases=3 Linecode=5c_.1 Length=4.76738 Units=m
New Line.LINE53_Cmpd_140 Bus1=53_1138 Bus2=53_1253 phases=3 Linecode=4c_.2_SAC Length=15.91183 Units=m
New Line.LINE53_Cmpd_141 Bus1=53_1133 Bus2=53_1183 phases=3 Linecode=.0225 Length=8.1488 Units=m
New Line.LINE53_Cmpd_142 Bus1=53_1371 Bus2=53_1598 phases=3 Linecode=2c_.0225 Length=11.17768 Units=m
New Line.LINE53_Cmpd_143 Bus1=53_769 Bus2=53_830 phases=3 Linecode=4c_.2_SAC Length=8.0349 Units=m
New Line.LINE53_Cmpd_144 Bus1=53_253 Bus2=53_438 phases=3 Linecode=2c_.02 Length=11.93248 Units=m
New Line.LINE53_Cmpd_145 Bus1=53_1348 Bus2=53_1395 phases=3 Linecode=5c_.1 Length=10.718 Units=m
New Line.LINE53_Cmpd_146 Bus1=53_1562 Bus2=53_2023 phases=3 Linecode=.0225 Length=14.646965 Units=m
New Line.LINE53_Cmpd_147 Bus1=53_1418 Bus2=53_1666 phases=3 Linecode=2c_.0225 Length=9.85098 Units=m
New Line.LINE53_Cmpd_148 Bus1=53_1033 Bus2=53_1171 phases=3 Linecode=5c_.1 Length=5.47407 Units=m
New Line.LINE53_Cmpd_149 Bus1=53_1593 Bus2=53_1731 phases=3 Linecode=3c_185_SAC_XC Length=22.01054 Units=m
New Line.LINE53_Cmpd_150 Bus1=53_545 Bus2=53_616 phases=3 Linecode=4c_.2_SAC Length=12.1708 Units=m
New Line.LINE53_Cmpd_151 Bus1=53_2687 Bus2=53_2717 phases=3 Linecode=3c_185_SAC_XC Length=15.601686 Units=m
New Line.LINE53_Cmpd_152 Bus1=53_1453 Bus2=53_1559 phases=3 Linecode=.0225 Length=12.547197 Units=m
New Line.LINE53_Cmpd_153 Bus1=53_2666 Bus2=53_2696 phases=3 Linecode=3c_185_SAC_XC Length=3.22812 Units=m
New Line.LINE53_Cmpd_154 Bus1=53_1227 Bus2=53_1269 phases=3 Linecode=2c_.04 Length=12.2485 Units=m
New Line.LINE53_Cmpd_155 Bus1=53_2566 Bus2=53_2643 phases=3 Linecode=35_SAC_PC Length=10.386744 Units=m
New Line.LINE53_Cmpd_156 Bus1=53_534 Bus2=53_749 phases=3 Linecode=2c_.0225 Length=10.185048 Units=m
New Line.LINE53_Cmpd_157 Bus1=53_1381 Bus2=53_1427 phases=3 Linecode=3c_185_SAC_XC Length=9.3782 Units=m
New Line.LINE53_Cmpd_158 Bus1=53_664 Bus2=53_742 phases=3 Linecode=4c_.2_SAC Length=15.0992 Units=m
New Line.LINE53_Cmpd_159 Bus1=53_1085 Bus2=53_1167 phases=3 Linecode=.0225 Length=8.84579 Units=m
New Line.LINE53_Cmpd_160 Bus1=53_240 Bus2=53_390 phases=3 Linecode=2c_.0225 Length=14.364778 Units=m
New Line.LINE53_Cmpd_161 Bus1=53_1193 Bus2=53_1390 phases=3 Linecode=2c_.0225 Length=9.96326 Units=m
New Line.LINE53_Cmpd_162 Bus1=53_1686 Bus2=53_1885 phases=3 Linecode=2c_.0145 Length=10.22189 Units=m
New Line.LINE53_Cmpd_163 Bus1=53_332 Bus2=53_399 phases=3 Linecode=4c_.3_SAC Length=9.50691 Units=m
New Line.LINE53_Cmpd_164 Bus1=53_1253 Bus2=53_1316 phases=3 Linecode=4c_.2_SAC Length=12.2122 Units=m
New Line.LINE53_Cmpd_165 Bus1=53_301 Bus2=53_410 phases=3 Linecode=25_SAC_XC Length=15.47059 Units=m
New Line.LINE53_Cmpd_166 Bus1=53_220 Bus2=53_240 phases=3 Linecode=2c_.0225 Length=15.5507 Units=m
New Line.LINE53_Cmpd_167 Bus1=53_303 Bus2=53_416 phases=3 Linecode=4c_185_SAC_XC Length=9.04019 Units=m
New Line.LINE53_Cmpd_168 Bus1=53_287 Bus2=53_310 phases=3 Linecode=2c_.0225 Length=16.65073 Units=m
New Line.LINE53_Cmpd_169 Bus1=53_524 Bus2=53_595 phases=3 Linecode=5c_.1 Length=2.13128 Units=m
New Line.LINE53_Cmpd_170 Bus1=53_108 Bus2=53_121 phases=3 Linecode=4c_.2_SAC Length=4.7399 Units=m
New Line.LINE53_Cmpd_171 Bus1=53_281 Bus2=53_303 phases=3 Linecode=4c_185_SAC_XC Length=5.7737 Units=m
New Line.LINE53_Cmpd_172 Bus1=53_416 Bus2=53_451 phases=3 Linecode=4c_.0145 Length=11.1668 Units=m
New Line.LINE53_Cmpd_173 Bus1=53_94 Bus2=53_100 phases=3 Linecode=4c_.2_SAC Length=2.82654 Units=m
New Line.LINE53_Cmpd_174 Bus1=53_514 Bus2=53_557 phases=3 Linecode=2c_.0145 Length=14.23656 Units=m
New Line.LINE53_Cmpd_175 Bus1=53_442 Bus2=53_493 phases=3 Linecode=5c_.1 Length=8.4265 Units=m
New Line.LINE53_Cmpd_176 Bus1=53_1559 Bus2=53_1619 phases=3 Linecode=.0225 Length=4.3057 Units=m
New Line.LINE53_Cmpd_177 Bus1=53_1462 Bus2=53_1512 phases=3 Linecode=5c_.1 Length=11.4584 Units=m
New Line.LINE53_Cmpd_178 Bus1=53_1281 Bus2=53_1374 phases=3 Linecode=.0225 Length=7.60128 Units=m
New Line.LINE53_Cmpd_179 Bus1=53_1222 Bus2=53_1263 phases=3 Linecode=4c_.3_SAC Length=4.7129 Units=m
New Line.LINE53_Cmpd_180 Bus1=53_1147 Bus2=53_1195 phases=3 Linecode=2c_.04 Length=11.0656 Units=m
New Line.LINE53_Cmpd_181 Bus1=53_303 Bus2=53_370 phases=3 Linecode=25_SAC_XC Length=26.37903 Units=m
New Line.LINE53_Cmpd_182 Bus1=53_492 Bus2=53_722 phases=3 Linecode=2c_.0225 Length=14.056034 Units=m
New Line.LINE53_Cmpd_183 Bus1=53_1386 Bus2=53_1505 phases=3 Linecode=.0225 Length=6.265742 Units=m
New Line.LINE53_Cmpd_184 Bus1=53_947 Bus2=53_1011 phases=3 Linecode=.0225 Length=7.3093 Units=m
New Line.LINE53_Cmpd_185 Bus1=53_1791 Bus2=53_1832 phases=3 Linecode=3c_185_SAC_XC Length=5.7028 Units=m
New Line.LINE53_Cmpd_186 Bus1=53_590 Bus2=53_684 phases=3 Linecode=4c_.3_SAC Length=14.9693 Units=m
New Line.LINE53_Cmpd_187 Bus1=53_1754 Bus2=53_1791 phases=3 Linecode=3c_185_SAC_XC Length=2.01246 Units=m
New Line.LINE53_Cmpd_188 Bus1=53_1586 Bus2=53_1647 phases=3 Linecode=3c_185_SAC_XC Length=0.520876 Units=m
New Line.LINE53_Cmpd_189 Bus1=53_1019 Bus2=53_1076 phases=3 Linecode=2c_.0225 Length=8.0609 Units=m
New Line.LINE53_Cmpd_190 Bus1=53_503 Bus2=53_571 phases=3 Linecode=16_PSC Length=11.9443 Units=m
New Line.LINE53_Cmpd_191 Bus1=53_910 Bus2=53_977 phases=3 Linecode=.0225 Length=8.5417 Units=m
New Line.LINE53_Cmpd_192 Bus1=53_311 Bus2=53_344 phases=3 Linecode=2c_.0225 Length=5.93404 Units=m
New Line.LINE53_Cmpd_193 Bus1=53_231 Bus2=53_253 phases=3 Linecode=2c_.02 Length=7.35431 Units=m
New Line.LINE53_Cmpd_194 Bus1=53_466 Bus2=53_503 phases=3 Linecode=4c_185_SAC_XC Length=4.3234 Units=m
New Line.LINE53_Cmpd_195 Bus1=53_1534 Bus2=53_1594 phases=3 Linecode=.0225 Length=6.988 Units=m
New Line.LINE53_Cmpd_196 Bus1=53_66 Bus2=53_87 phases=3 Linecode=2c_.0145 Length=11.91332 Units=m
New Line.LINE53_Cmpd_197 Bus1=53_1263 Bus2=53_1307 phases=3 Linecode=4c_.3_SAC Length=1.836 Units=m
New Line.LINE53_Cmpd_198 Bus1=53_493 Bus2=53_534 phases=3 Linecode=2c_.0225 Length=6.47797 Units=m
New Line.LINE53_Cmpd_199 Bus1=53_416 Bus2=53_466 phases=3 Linecode=4c_185_SAC_XC Length=9.3908 Units=m
New Line.LINE53_Cmpd_200 Bus1=53_616 Bus2=53_664 phases=3 Linecode=4c_.2_SAC Length=4.14887 Units=m
New Line.LINE53_Cmpd_201 Bus1=53_466 Bus2=53_502 phases=3 Linecode=2c_.0145 Length=12.2509 Units=m
New Line.LINE53_Cmpd_202 Bus1=53_1492 Bus2=53_1547 phases=3 Linecode=2c_.04 Length=12.604 Units=m
New Line.LINE53_Cmpd_203 Bus1=53_399 Bus2=53_429 phases=3 Linecode=4c_.3_SAC Length=11.0411 Units=m
New Line.LINE53_Cmpd_204 Bus1=53_100 Bus2=53_108 phases=3 Linecode=4c_.2_SAC Length=5.6665 Units=m
New Line.LINE53_Cmpd_205 Bus1=53_281 Bus2=53_304 phases=3 Linecode=2c_.0145 Length=9.2816 Units=m
New Line.LINE53_Cmpd_206 Bus1=53_1300 Bus2=53_1348 phases=3 Linecode=5c_.1 Length=3.94628 Units=m
New Line.LINE53_Cmpd_207 Bus1=53_287 Bus2=53_311 phases=3 Linecode=5c_.1 Length=3.2875 Units=m
New Line.LINE53_Cmpd_208 Bus1=53_642 Bus2=53_693 phases=3 Linecode=5c_.1 Length=5.0897 Units=m
