Test_Network/condensed/network_5/Feeder_4/LinesUnq_pruned.txt
New Line.LINE54_1 Bus1=54_1 Bus2=54_2 phases=3 Linecode=5c_.06 Length=0.41565 Units=m
New Line.LINE54_2 Bus1=54_2 Bus2=54_3 phases=3 Linecode=5c_.06 Length=0.031384 Units=m
New Line.LINE54_3 Bus1=54_3 Bus2=54_4 phases=3 Linecode=5c_.06 Length=0.044408 Units=m
New Line.LINE54_4 Bus1=54_4 Bus2=54_5 phases=3 Linecode=5c_.06 Length=0.058729 Units=m
New Line.LINE54_5 Bus1=54_5 Bus2=54_6 phases=3 Linecode=5c_.06 Length=0.049243 Units=m
New Line.LINE54_6 Bus1=54_6 Bus2=54_7 phases=3 Linecode=5c_.06 Length=0.038627 Units=m
New Line.LINE54_7 Bus1=54_7 Bus2=54_8 phases=3 Linecode=5c_.06 Length=0.038639 Units=m
New Line.LINE54_8 Bus1=54_8 Bus2=54_9 phases=3 Linecode=5c_.06 Length=0.03864 Units=m
New Line.LINE54_9 Bus1=54_9 Bus2=54_10 phases=3 Linecode=5c_.06 Length=0.035354 Units=m
New Line.LINE54_10 Bus1=54_10 Bus2=54_11 phases=3 Linecode=5c_.06 Length=0.076923 Units=m
New Line.LINE54_11 Bus1=54_11 Bus2=54_12 phases=3 Linecode=5c_.06 Length=1.9035 Units=m
New Line.LINE54_12 Bus1=54_12 Bus2=54_13 phases=3 Linecode=5c_.06 Length=0.045879 Units=m
New Line.LINE54_13 Bus1=54_13 Bus2=54_14 phases=3 Linecode=5c_.06 Length=0.033016 Units=m
New Line.LINE54_14 Bus1=54_14 Bus2=54_15 phases=3 Linecode=5c_.06 Length=0.50554 Units=m
New Line.LINE54_15 Bus1=54_15 Bus2=54_16 phases=3 Linecode=5c_.06 Length=0.0436 Units=m
New Line.LINE54_16 Bus1=54_16 Bus2=54_17 phases=3 Linecode=5c_.06 Length=0.07184 Units=m
New Line.LINE54_17 Bus1=54_17 Bus2=54_18 phases=3 Linecode=5c_.06 Length=5.0564 Units=m
New Line.LINE54_18 Bus1=54_18 Bus2=54_19 phases=3 Linecode=5c_.06 Length=3.4914 Units=m
New Line.LINE54_19 Bus1=54_19 Bus2=54_20 phases=3 Linecode=5c_.06 Length=10.5823 Units=m
New Line.LINE54_20 Bus1=54_20 Bus2=54_21 phases=3 Linecode=5c_.06 Length=0.91068 Units=m
New Line.LINE54_21 Bus1=54_21 Bus2=54_22 phases=3 Linecode=5c_.06 Length=0.22632 Units=m
New Line.LINE54_22 Bus1=54_22 Bus2=54_23 phases=3 Linecode=5c_.06 Length=0.10717 Units=m
New Line.LINE54_23 Bus1=54_23 Bus2=54_24 phases=3 Linecode=5c_.06 Length=0.10218 Units=m
New Line.LINE54_24 Bus1=54_24 Bus2=54_25 phases=3 Linecode=5c_.06 Length=0.074433 Units=m
New Line.LINE54_25 Bus1=54_25 Bus2=54_26 phases=3 Linecode=5c_.06 Length=0.057306 Units=m
New Line.LINE54_26 Bus1=54_26 Bus2=54_27 phases=3 Linecode=5c_.06 Length=0.072139 Units=m
New Line.LINE54_27 Bus1=54_27 Bus2=54_28 phases=3 Linecode=5c_.06 Length=0.060441 Units=m
New Line.LINE54_28 Bus1=54_28 Bus2=54_29 phases=3 Linecode=5c_.06 Length=0.24821 Units=m
New Line.LINE54_29 Bus1=54_29 Bus2=54_30 phases=3 Linecode=5c_.1 Length=4.0453 Units=m
New Line.LINE54_32 Bus1=54_30 Bus2=54_33 phases=3 Linecode=5c_.1 Length=3.4496 Units=m
New Line.LINE54_36 Bus1=54_33 Bus2=54_37 phases=3 Linecode=16_PSC Length=0.36508 Units=m
New Line.LINE54_40 Bus1=54_37 Bus2=54_41 phases=3 Linecode=16_PSC Length=0.18019 Units=m
New Line.LINE54_44 Bus1=54_41 Bus2=54_45 phases=3 Linecode=16_PSC Length=0.0622 Units=m
New Line.LINE54_48 Bus1=54_45 Bus2=54_49 phases=3 Linecode=16_PSC Length=0.058941 Units=m
New Line.LINE54_53 Bus1=54_49 Bus2=54_54 phases=3 Linecode=16_PSC Length=0.060406 Units=m
New Line.LINE54_58 Bus1=54_54 Bus2=54_59 phases=3 Linecode=16_PSC Length=0.075214 Units=m
New Line.LINE54_64 Bus1=54_59 Bus2=54_65 phases=3 Linecode=16_PSC Length=0.11741 Units=m
New Line.LINE54_70 Bus1=54_65 Bus2=54_71 phases=3 Linecode=16_PSC Length=0.091401 Units=m
New Line.LINE54_76 Bus1=54_71 Bus2=54_77 phases=3 Linecode=16_PSC Length=0.071119 Units=m
New Line.LINE54_81 Bus1=54_77 Bus2=54_82 phases=3 Linecode=16_PSC Length=0.080056 Units=m
New Line.LINE54_87 Bus1=54_82 Bus2=54_88 phases=3 Linecode=16_PSC Length=3.059 Units=m
New Line.LINE54_93 Bus1=54_88 Bus2=54_94 phases=3 Linecode=16_PSC Length=1.1504 Units=m
New Line.LINE54_94 Bus1=54_89 Bus2=54_95 phases=3 Linecode=5c_.1 Length=11.9463 Units=m
New Line.LINE54_100 Bus1=54_94 Bus2=54_101 phases=3 Linecode=16_PSC Length=0.40003 Units=m
New Line.LINE54_108 Bus1=54_101 Bus2=54_109 phases=3 Linecode=16_PSC Length=0.41013 Units=m
New Line.LINE54_116 Bus1=54_109 Bus2=54_117 phases=3 Linecode=16_PSC Length=0.17603 Units=m
New Line.LINE54_117 Bus1=54_110 Bus2=54_118 phases=3 Linecode=5c_.1 Length=14.8117 Units=m
New Line.LINE54_118 Bus1=54_110 Bus2=54_119 phases=3 Linecode=5c_.1 Length=3.9325 Units=m
New Line.LINE54_124 Bus1=54_117 Bus2=54_125 phases=3 Linecode=16_PSC Length=0.16819 Units=m
New Line.LINE54_127 Bus1=54_118 Bus2=54_128 phases=3 Linecode=5c_.1 Length=7.2907 Units=m
New Line.LINE54_129 Bus1=54_119 Bus2=54_130 phases=3 Linecode=2c_.0145 Length=9.2395 Units=m
New Line.LINE54_135 Bus1=54_125 Bus2=54_136 phases=3 Linecode=16_PSC Length=0.10394 Units=m
New Line.LINE54_138 Bus1=54_128 Bus2=54_139 phases=3 Linecode=5c_.1 Length=10.4189 Units=m
New Line.LINE54_141 Bus1=54_130 Bus2=54_142 phases=3 Linecode=2c_.0145 Length=6.5731 Units=m
New Line.LINE54_147 Bus1=54_136 Bus2=54_148 phases=3 Linecode=16_PSC Length=0.16824 Units=m
New Line.LINE54_151 Bus1=54_139 Bus2=54_152 phases=3 Linecode=5c_.1 Length=8.2743 Units=m
New Line.LINE54_158 Bus1=54_148 Bus2=54_159 phases=3 Linecode=16_PSC Length=0.1023 Units=m
New Line.LINE54_162 Bus1=54_152 Bus2=54_163 phases=3 Linecode=5c_.1 Length=8.0963 Units=m
New Line.LINE54_170 Bus1=54_159 Bus2=54_171 phases=3 Linecode=16_PSC Length=0.2708 Units=m
New Line.LINE54_176 Bus1=54_163 Bus2=54_177 phases=3 Linecode=5c_.1 Length=7.904 Units=m
New Line.LINE54_182 Bus1=54_171 Bus2=54_183 phases=3 Linecode=16_PSC Length=0.75534 Units=m
New Line.LINE54_190 Bus1=54_177 Bus2=54_191 phases=3 Linecode=2c_.0145 Length=8.144 Units=m
New Line.LINE54_197 Bus1=54_183 Bus2=54_198 phases=3 Linecode=16_PSC Length=1.3136 Units=m
New Line.LINE54_204 Bus1=54_191 Bus2=54_205 phases=3 Linecode=2c_.0145 Length=4.4084 Units=m
New Line.LINE54_209 Bus1=54_198 Bus2=54_210 phases=3 Linecode=16_PSC Length=0.10962 Units=m
New Line.LINE54_218 Bus1=54_210 Bus2=54_219 phases=3 Linecode=16_PSC Length=0.067898 Units=m
New Line.LINE54_227 Bus1=54_219 Bus2=54_228 phases=3 Linecode=16_PSC Length=0.079849 Units=m
New Line.LINE54_235 Bus1=54_228 Bus2=54_236 phases=3 Linecode=16_PSC Length=0.10604 Units=m
New Line.LINE54_241 Bus1=54_236 Bus2=54_242 phases=3 Linecode=16_PSC Length=0.129 Units=m
New Line.LINE54_246 Bus1=54_242 Bus2=54_247 phases=3 Linecode=16_PSC Length=0.12618 Units=m
New Line.LINE54_251 Bus1=54_247 Bus2=54_252 phases=3 Linecode=16_PSC Length=0.28486 Units=m
New Line.LINE54_254 Bus1=54_252 Bus2=54_255 phases=3 Linecode=16_PSC Length=6.4586 Units=m
New Line.LINE54_325 Bus1=54_322 Bus2=54_326 phases=3 Linecode=25_SAC_XC Length=0.11424 Units=m
New Line.LINE54_328 Bus1=54_326 Bus2=54_329 phases=3 Linecode=25_SAC_XC Length=2.52 Units=m
New Line.LINE54_350 Bus1=54_349 Bus2=54_351 phases=3 Linecode=5c_.1 Length=4.39 Units=m
New Line.LINE54_353 Bus1=54_351 Bus2=54_354 phases=3 Linecode=5c_.1 Length=4.0781 Units=m
New Line.LINE54_357 Bus1=54_354 Bus2=54_358 phases=3 Linecode=5c_.1 Length=4.9858 Units=m
New Line.LINE54_362 Bus1=54_358 Bus2=54_363 phases=3 Linecode=5c_.1 Length=4.8936 Units=m
New Line.LINE54_368 Bus1=54_363 Bus2=54_369 phases=3 Linecode=5c_.1 Length=6.1064 Units=m
New Line.LINE54_374 Bus1=54_369 Bus2=54_375 phases=3 Linecode=5c_.1 Length=15.2031 Units=m
New Line.LINE54_380 Bus1=54_375 Bus2=54_381 phases=3 Linecode=5c_.1 Length=5.2521 Units=m
New Line.LINE54_387 Bus1=54_381 Bus2=54_388 phases=3 Linecode=5c_.1 Length=1.4743 Units=m
New Line.LINE54_394 Bus1=54_388 Bus2=54_395 phases=3 Linecode=5c_.06 Length=4.3328 Units=m
New Line.LINE54_401 Bus1=54_395 Bus2=54_402 phases=3 Linecode=5c_.06 Length=4.8591 Units=m
New Line.LINE54_437 Bus1=54_435 Bus2=54_438 phases=3 Linecode=5c_.06 Length=4.5372 Units=m
New Line.LINE54_441 Bus1=54_438 Bus2=54_442 phases=3 Linecode=5c_.06 Length=2.3221 Units=m
New Line.LINE54_443 Bus1=54_442 Bus2=54_444 phases=3 Linecode=5c_.06 Length=2.6452 Units=m
New Line.LINE54_445 Bus1=54_444 Bus2=54_446 phases=3 Linecode=2c_.0225 Length=6.3443 Units=m
New Line.LINE54_447 Bus1=54_446 Bus2=54_448 phases=3 Linecode=2c_.0225 Length=11.3018 Units=m
New Line.LINE54_Cmpd_0 Bus1=54_38 Bus2=54_76 phases=3 Linecode=2c_.0145 Length=12.80948 Units=m
New Line.LINE54_Cmpd_1 Bus1=54_163 Bus2=54_322 phases=3 Linecode=5c_.1 Length=59.543393 Units=m
New Line.LINE54_Cmpd_2 Bus1=54_322 Bus2=54_349 phases=3 Linecode=5c_.1 Length=50.1819 Units=m
New Line.LINE54_Cmpd_3 Bus1=54_78 Bus2=54_277 phases=3 Linecode=16_PSC Length=16.546871 Units=m
New Line.LINE54_Cmpd_4 Bus1=54_95 Bus2=54_195 phases=3 Linecode=25_SAC_XC Length=14.75496 Units=m
New Line.LINE54_Cmpd_5 Bus1=54_163 Bus2=54_204 phases=3 Linecode=.0225 Length=12.8793 Units=m
New Line.LINE54_Cmpd_6 Bus1=54_118 Bus2=54_199 phases=3 Linecode=16_PSC Length=13.29812 Units=m
New Line.LINE54_Cmpd_7 Bus1=54_139 Bus2=54_248 phases=3 Linecode=16_PSC Length=12.431809 Units=m
New Line.LINE54_Cmpd_8 Bus1=54_369 Bus2=54_405 phases=3 Linecode=2c_.0225 Length=12.41835 Units=m
New Line.LINE54_Cmpd_9 Bus1=54_46 Bus2=54_235 phases=3 Linecode=16_PSC Length=17.90537 Units=m
New Line.LINE54_Cmpd_10 Bus1=54_351 Bus2=54_387 phases=3 Linecode=2c_.0225 Length=11.83921 Units=m
New Line.LINE54_Cmpd_11 Bus1=54_412 Bus2=54_445 phases=3 Linecode=2c_.0225 Length=12.29249 Units=m
New Line.LINE54_Cmpd_12 Bus1=54_89 Bus2=54_144 phases=3 Linecode=25_SAC_XC Length=13.996288 Units=m
New Line.LINE54_Cmpd_13 Bus1=54_435 Bus2=54_440 phases=3 Linecode=2c_.0225 Length=15.3707 Units=m
New Line.LINE54_Cmpd_14 Bus1=54_30 Bus2=54_38 phases=3 Linecode=5c_.1 Length=15 Units=m
New Line.LINE54_Cmpd_15 Bus1=54_354 Bus2=54_394 phases=3 Linecode=2c_.0225 Length=13.02924 Units=m
New Line.LINE54_Cmpd_16 Bus1=54_363 Bus2=54_399 phases=3 Linecode=2c_.0225 Length=11.83048 Units=m
New Line.LINE54_Cmpd_17 Bus1=54_381 Bus2=54_425 phases=3 Linecode=25_SAC_XC Length=12.4676 Units=m
New Line.LINE54_Cmpd_18 Bus1=54_55 Bus2=54_78 phases=3 Linecode=5c_.1 Length=10.63754 Units=m
New Line.LINE54_Cmpd_19 Bus1=54_375 Bus2=54_415 phases=3 Linecode=2c_.0225 Length=11.80815 Units=m
New Line.LINE54_Cmpd_20 Bus1=54_349 Bus2=54_374 phases=3 Linecode=2c_.0225 Length=11.91334 Units=m
New Line.LINE54_Cmpd_21 Bus1=54_395 Bus2=54_421 phases=3 Linecode=2c_.0225 Length=12.23632 Units=m
New Line.LINE54_Cmpd_22 Bus1=54_402 Bus2=54_433 phases=3 Linecode=2c_.0225 Length=10.68714 Units=m
New Line.LINE54_Cmpd_23 Bus1=54_95 Bus2=54_110 phases=3 Linecode=5c_.1 Length=4.212621 Units=m
New Line.LINE54_Cmpd_24 Bus1=54_423 Bus2=54_435 phases=3 Linecode=5c_.06 Length=17.4341 Units=m
New Line.LINE54_Cmpd_25 Bus1=54_55 Bus2=54_68 phases=3 Linecode=2c_.0145 Length=14.588 Units=m
New Line.LINE54_Cmpd_26 Bus1=54_412 Bus2=54_423 phases=3 Linecode=5c_.06 Length=4.1401 Units=m
New Line.LINE54_Cmpd_27 Bus1=54_152 Bus2=54_174 phases=3 Linecode=2c_.0145 Length=13.6103 Units=m
New Line.LINE54_Cmpd_28 Bus1=54_128 Bus2=54_150 phases=3 Linecode=2c_.0145 Length=13.3844 Units=m
New Line.LINE54_Cmpd_29 Bus1=54_358 Bus2=54_400 phases=3 Linecode=2c_.0225 Length=12.21679 Units=m
New Line.LINE54_Cmpd_30 Bus1=54_402 Bus2=54_412 phases=3 Linecode=5c_.06 Length=6.4783 Units=m
New Line.LINE54_Cmpd_31 Bus1=54_38 Bus2=54_46 phases=3 Linecode=5c_.1 Length=7.8779 Units=m
New Line.LINE54_Cmpd_32 Bus1=54_423 Bus2=54_431 phases=3 Linecode=2c_.0225 Length=11.8907 Units=m
New Line.LINE54_Cmpd_33 Bus1=54_78 Bus2=54_89 phases=3 Linecode=5c_.1 Length=9.87563 Units=m
New Line.LINE54_Cmpd_34 Bus1=54_46 Bus2=54_55 phases=3 Linecode=5c_.1 Length=9.6487 Units=m
