Test_Network/condensed/network_5/Feeder_6/LinesUnq_pruned.txt
New Line.LINE56_58 Bus1=56_58 Bus2=56_59 phases=3 Linecode=25_SAC_XC Length=4.6979 Units=m
New Line.LINE56_107 Bus1=56_103 Bus2=56_108 phases=3 Linecode=2c_.0145 Length=9.3908 Units=m
New Line.LINE56_113 Bus1=56_108 Bus2=56_114 phases=3 Linecode=2c_.0145 Length=4.3751 Units=m
New Line.LINE56_140 Bus1=56_134 Bus2=56_141 phases=3 Linecode=5c_.1 Length=7.6863 Units=m
New Line.LINE56_170 Bus1=56_164 Bus2=56_171 phases=3 Linecode=5c_.1 Length=9.4965 Units=m
New Line.LINE56_226 Bus1=56_220 Bus2=56_227 phases=3 Linecode=5c_.1 Length=2.9178 Units=m
New Line.LINE56_233 Bus1=56_227 Bus2=56_234 phases=3 Linecode=5c_.1 Length=7.6616 Units=m
New Line.LINE56_234 Bus1=56_227 Bus2=56_235 phases=3 Linecode=25_SAC_XC Length=1.4764 Units=m
New Line.LINE56_Cmpd_0 Bus1=56_171 Bus2=56_188 phases=3 Linecode=5c_.1 Length=6.5219 Units=m
New Line.LINE56_Cmpd_1 Bus1=56_1 Bus2=56_58 phases=3 Linecode=4c_.2_SAC Length=47.587413 Units=m
New Line.LINE56_Cmpd_2 Bus1=56_134 Bus2=56_292 phases=3 Linecode=16_PSC Length=16.359407 Units=m
New Line.LINE56_Cmpd_3 Bus1=56_234 Bus2=56_343 phases=3 Linecode=16_PSC Length=18.87145 Units=m
New Line.LINE56_Cmpd_4 Bus1=56_108 Bus2=56_194 phases=3 Linecode=2c_.0145 Length=10.30238 Units=m
New Line.LINE56_Cmpd_5 Bus1=56_287 Bus2=56_347 phases=3 Linecode=16_PSC Length=16.94679 Units=m
New Line.LINE56_Cmpd_6 Bus1=56_188 Bus2=56_220 phases=3 Linecode=5c_.1 Length=8.8014 Units=m
New Line.LINE56_Cmpd_7 Bus1=56_164 Bus2=56_321 phases=3 Linecode=16_PSC Length=17.168832 Units=m
New Line.LINE56_Cmpd_8 Bus1=56_234 Bus2=56_247 phases=3 Linecode=5c_.1 Length=7.3582 Units=m
New Line.LINE56_Cmpd_9 Bus1=56_93 Bus2=56_216 phases=3 Linecode=25_SAC_XC Length=19.480289 Units=m
New Line.LINE56_Cmpd_10 Bus1=56_141 Bus2=56_164 phases=3 Linecode=5c_.1 Length=8.6591 Units=m
New Line.LINE56_Cmpd_11 Bus1=56_247 Bus2=56_263 phases=3 Linecode=2c_.0145 Length=13.019 Units=m
New Line.LINE56_Cmpd_12 Bus1=56_58 Bus2=56_65 phases=3 Linecode=4c_.2_SAC Length=9.37184 Units=m
New Line.LINE56_Cmpd_13 Bus1=56_116 Bus2=56_128 phases=3 Linecode=2c_.0145 Length=13.7215 Units=m
New Line.LINE56_Cmpd_14 Bus1=56_65 Bus2=56_80 phases=3 Linecode=5c_.1 Length=25.16529 Units=m
New Line.LINE56_Cmpd_15 Bus1=56_318 Bus2=56_333 phases=3 Linecode=25_SAC_XC Length=17.8285 Units=m
New Line.LINE56_Cmpd_16 Bus1=56_116 Bus2=56_134 phases=3 Linecode=5c_.1 Length=10.0317 Units=m
New Line.LINE56_Cmpd_17 Bus1=56_247 Bus2=56_287 phases=3 Linecode=5c_.1 Length=9.55374 Units=m
New Line.LINE56_Cmpd_18 Bus1=56_80 Bus2=56_93 phases=3 Linecode=5c_.1 Length=12.5048 Units=m
New Line.LINE56_Cmpd_19 Bus1=56_80 Bus2=56_87 phases=3 Linecode=2c_.0145 Length=14.0204 Units=m
New Line.LINE56_Cmpd_20 Bus1=56_103 Bus2=56_116 phases=3 Linecode=5c_.1 Length=18.1502 Units=m
New Line.LINE56_Cmpd_21 Bus1=56_93 Bus2=56_103 phases=3 Linecode=5c_.1 Length=8.0908 Units=m
New Line.LINE56_Cmpd_22 Bus1=56_188 Bus2=56_213 phases=3 Linecode=2c_.0225 Length=13.1159 Units=m
New Line.LINE56_Cmpd_23 Bus1=56_171 Bus2=56_189 phases=3 Linecode=2c_.0145 Length=12.978 Units=m
New Line.LINE56_Cmpd_24 Bus1=56_141 Bus2=56_156 phases=3 Linecode=2c_.0145 Length=13.9099 Units=m
New Line.LINE56_Cmpd_25 Bus1=56_287 Bus2=56_307 phases=3 Linecode=5c_.1 Length=14.1022 Units=m
New Line.LINE56_Cmpd_26 Bus1=56_307 Bus2=56_318 phases=3 Linecode=.3 Length=3.1727 Units=m
New Line.LINE56_Cmpd_27 Bus1=56_220 Bus2=56_233 phases=3 Linecode=2c_.0145 Length=14.0342 Units=m
