Test_Network/condensed/network_5/Feeder_7/LinesUnq_pruned.txt
New Line.LINE57_52 Bus1=57_52 Bus2=57_53 phases=3 Linecode=4c_.1 Length=10.5984 Units=m
New Line.LINE57_54 Bus1=57_53 Bus2=57_55 phases=3 Linecode=4c_.1 Length=6.5193 Units=m
New Line.LINE57_63 Bus1=57_61 Bus2=57_64 phases=3 Linecode=4c_.1 Length=5.7073 Units=m
New Line.LINE57_66 Bus1=57_64 Bus2=57_67 phases=3 Linecode=4c_.1 Length=0.72801 Units=m
New Line.LINE57_67 Bus1=57_64 Bus2=57_68 phases=3 Linecode=2c_.0225 Length=11.0414 Units=m
New Line.LINE57_208 Bus1=57_203 Bus2=57_209 phases=3 Linecode=4c_.1 Length=7.2754 Units=m
New Line.LINE57_306 Bus1=57_304 Bus2=57_307 phases=3 Linecode=4c_.1 Length=6.6734 Units=m
New Line.LINE57_Cmpd_0 Bus1=57_209 Bus2=57_221 phases=3 Linecode=25_SAC_XC Length=12.7261 Units=m
New Line.LINE57_Cmpd_1 Bus1=57_135 Bus2=57_251 phases=3 Linecode=2c_.0225 Length=13.59658 Units=m
New Line.LINE57_Cmpd_2 Bus1=57_268 Bus2=57_275 phases=3 Linecode=25_SAC_XC Length=14.8992 Units=m
New Line.LINE57_Cmpd_3 Bus1=57_1 Bus2=57_52 phases=3 Linecode=4c_.1 Length=36.611572 Units=m
New Line.LINE57_Cmpd_4 Bus1=57_268 Bus2=57_292 phases=3 Linecode=4c_.1 Length=6.63116 Units=m
New Line.LINE57_Cmpd_5 Bus1=57_68 Bus2=57_116 phases=3 Linecode=2c_.0225 Length=18.58766 Units=m
New Line.LINE57_Cmpd_6 Bus1=57_174 Bus2=57_287 phases=3 Linecode=2c_.0225 Length=13.54415 Units=m
New Line.LINE57_Cmpd_7 Bus1=57_203 Bus2=57_214 phases=3 Linecode=25_SAC_XC Length=12.3666 Units=m
New Line.LINE57_Cmpd_8 Bus1=57_209 Bus2=57_234 phases=3 Linecode=4c_.1 Length=12.1973 Units=m
New Line.LINE57_Cmpd_9 Bus1=57_260 Bus2=57_268 phases=3 Linecode=4c_.1 Length=9.8702 Units=m
New Line.LINE57_Cmpd_10 Bus1=57_95 Bus2=57_123 phases=3 Linecode=4c_.1 Length=10.17705 Units=m
New Line.LINE57_Cmpd_11 Bus1=57_84 Bus2=57_95 phases=3 Linecode=4c_.1 Length=6.1317 Units=m
New Line.LINE57_Cmpd_12 Bus1=57_234 Bus2=57_260 phases=3 Linecode=4c_.1 Length=2.00397 Units=m
New Line.LINE57_Cmpd_13 Bus1=57_184 Bus2=57_203 phases=3 Linecode=4c_.1 Length=9.85543 Units=m
New Line.LINE57_Cmpd_14 Bus1=57_152 Bus2=57_230 phases=3 Linecode=2c_.0225 Length=15.370298 Units=m
New Line.LINE57_Cmpd_15 Bus1=57_123 Bus2=57_129 phases=3 Linecode=2c_.0225 Length=11.5797 Units=m
New Line.LINE57_Cmpd_16 Bus1=57_307 Bus2=57_313 phases=3 Linecode=25_SAC_XC Length=12.1206 Units=m
New Line.LINE57_Cmpd_17 Bus1=57_67 Bus2=57_84 phases=3 Linecode=4c_.1 Length=10.21753 Units=m
New Line.LINE57_Cmpd_18 Bus1=57_292 Bus2=57_298 phases=3 Linecode=4c_.1 Length=8.4114 Units=m
New Line.LINE57_Cmpd_19 Bus1=57_298 Bus2=57_303 phases=3 Linecode=25_SAC_XC Length=10.2928 Units=m
New Line.LINE57_Cmpd_20 Bus1=57_123 Bus2=57_135 phases=3 Linecode=4c_.1 Length=9.63275 Units=m
New Line.LINE57_Cmpd_21 Bus1=57_52 Bus2=57_57 phases=3 Linecode=2c_.0225 Length=11.3919 Units=m
New Line.LINE57_Cmpd_22 Bus1=57_135 Bus2=57_152 phases=3 Linecode=4c_.1 Length=8.54389 Units=m
New Line.LINE57_Cmpd_23 Bus1=57_174 Bus2=57_184 phases=3 Linecode=4c_.1 Length=10.5406 Units=m
New Line.LINE57_Cmpd_24 Bus1=57_152 Bus2=57_174 phases=3 Linecode=4c_.1 Length=8.84602 Units=m
New Line.LINE57_Cmpd_25 Bus1=57_260 Bus2=57_267 phases=3 Linecode=25_SAC_XC Length=13.857 Units=m
New Line.LINE57_Cmpd_26 Bus1=57_67 Bus2=57_77 phases=3 Linecode=2c_.0225 Length=11.2685 Units=m
New Line.LINE57_Cmpd_27 Bus1=57_304 Bus2=57_309 phases=3 Linecode=25_SAC_XC Length=10.3554 Units=m
New Line.LINE57_Cmpd_28 Bus1=57_184 Bus2=57_193 phases=3 Linecode=2c_.0225 Length=14.6401 Units=m
New Line.LINE57_Cmpd_29 Bus1=57_95 Bus2=57_103 phases=3 Linecode=2c_.0225 Length=11.8349 Units=m
New Line.LINE57_Cmpd_30 Bus1=57_53 Bus2=57_60 phases=3 Linecode=2c_.0225 Length=11.1266 Units=m
New Line.LINE57_Cmpd_31 Bus1=57_68 Bus2=57_79 phases=3 Linecode=2c_.0225 Length=8.9769 Units=m
New Line.LINE57_Cmpd_32 Bus1=57_61 Bus2=57_69 phases=3 Linecode=2c_.0225 Length=11.5378 Units=m
New Line.LINE57_Cmpd_33 Bus1=57_298 Bus2=57_304 phases=3 Linecode=4c_.1 Length=9.448 Units=m
New Line.LINE57_Cmpd_34 Bus1=57_292 Bus2=57_297 phases=3 Linecode=25_SAC_XC Length=9.9731 Units=m
New Line.LINE57_Cmpd_35 Bus1=57_234 Bus2=57_243 phases=3 Linecode=25_SAC_XC Length=13.3407 Units=m
New Line.LINE57_Cmpd_36 Bus1=57_55 Bus2=57_63 phases=3 Linecode=2c_.0225 Length=12.0986 Units=m
New Line.LINE57_Cmpd_37 Bus1=57_84 Bus2=57_92 phases=3 Linecode=2c_.0225 Length=11.6931 Units=m
New Line.LINE57_Cmpd_38 Bus1=57_55 Bus2=57_61 phases=3 Linecode=4c_.1 Length=10.191 Units=m
